<flow version="1.0" xmlns:iw="http://itensil.com/workflow">

    <iw:data src="testdata1.xml" />
    <iw:type icon="star2"/>

    <steps>
        <start id="s1" apptype="">
            <label/>
            <description/>
            <path id="p1" to="a1"><label/></path>
        </start>
        <activity id="a1" apptype="">
            <label/>
            <description/>
            <path id="p2" to="w1"><label/></path>
        </activity>
        <switch id="w1" mode="XOR" apptype="">
            <label/>
            <description/>
            <path id="p3" to="a1">
                <condition>val1 = 7</condition>
                <label/>
            </path>
            <path id="p4" to="t1">
                <!-- last condition always otherwise for XOR -->
                <condition/>
                <label/>
            </path>
        </switch>
        <timer id="t1" mode="until" apptype="">
            <label/>
            <description/>
            <path id="p5" to="e1"><label/></path>
           	<until type="condition"><condition>val1 = 9 and sub-activities() = 0</condition></until>
        </timer>
        <end id="e1" apptype="">
            <label/>
            <description/>
        </end>
    </steps>

    <notes>
    </notes>

</flow>